<?xml version="1.0" encoding="UTF-8"?>

<!-- generated on 2023-04-27 23:50:39 by Eclipse SUMO netedit Version 1.16.0
<configuration xmlns:xsi="http://www.w3.org/2001/XMLSchema-instance" xsi:noNamespaceSchemaLocation="http://sumo.dlr.de/xsd/netconvertConfiguration.xsd">

    <input>
        <sumo-net-file value="F:\CATS_Lab\2022 ANL-UWisc SOW\ParkSt_SUMO\ParkSt.net.xml"/>
    </input>

    <output>
        <output-file value="F:\CATS_Lab\2022 ANL-UWisc SOW\ParkSt_SUMO\ParkSt.net.xml"/>
    </output>

    <processing>
        <geometry.min-radius.fix.railways value="false"/>
        <geometry.max-grade.fix value="false"/>
        <offset.disable-normalization value="true"/>
        <lefthand value="0"/>
    </processing>

    <junctions>
        <no-turnarounds value="true"/>
        <junctions.corner-detail value="5"/>
        <junctions.limit-turn-speed value="5.50"/>
        <rectangular-lane-cut value="0"/>
    </junctions>

    <pedestrian>
        <walkingareas value="0"/>
    </pedestrian>

</configuration>
-->

<net version="1.16" junctionCornerDetail="5" limitTurnSpeed="5.50" xmlns:xsi="http://www.w3.org/2001/XMLSchema-instance" xsi:noNamespaceSchemaLocation="http://sumo.dlr.de/xsd/net_file.xsd">

    <location netOffset="0.00,0.00" convBoundary="-100.00,-100.00,358.10,100.10" origBoundary="-10000000000.00,-10000000000.00,10000000000.00,10000000000.00" projParameter="!"/>

    <edge id=":1_0" function="internal">
        <lane id=":1_0_0" index="0" allow="bus" speed="7.36" length="11.83" shape="-10.60,10.01 -10.99,6.33 -12.15,3.70 -14.09,2.13 -16.80,1.60"/>
    </edge>
    <edge id=":1_1" function="internal">
        <lane id=":1_1_0" index="0" allow="bus" speed="13.89" length="20.45" shape="-10.60,10.01 -11.20,-10.43"/>
    </edge>
    <edge id=":1_2" function="internal">
        <lane id=":1_2_0" index="0" speed="8.01" length="3.83" shape="-7.50,10.01 -8.08,6.33 -8.14,6.24"/>
    </edge>
    <edge id=":1_3" function="internal">
        <lane id=":1_3_0" index="0" speed="13.89" length="20.44" shape="-7.50,10.01 -8.00,-10.43"/>
        <lane id=":1_3_1" index="1" speed="13.89" length="20.44" shape="-4.50,10.01 -4.80,-10.43"/>
        <lane id=":1_3_2" index="2" speed="13.89" length="20.44" shape="-1.50,10.01 -1.60,-10.43"/>
    </edge>
    <edge id=":1_6" function="internal">
        <lane id=":1_6_0" index="0" speed="8.42" length="14.70" shape="-1.50,10.01 -1.13,4.95 -0.01,1.26 1.85,-1.08 4.46,-2.05"/>
    </edge>
    <edge id=":1_13" function="internal">
        <lane id=":1_13_0" index="0" speed="8.01" length="10.46" shape="-8.14,6.24 -9.82,3.70 -12.73,2.13 -16.80,1.60"/>
    </edge>
    <edge id=":1_7" function="internal">
        <lane id=":1_7_0" index="0" speed="13.89" length="22.09" shape="5.08,4.23 -1.85,4.05 -7.73,3.12 -12.68,2.09 -16.80,1.60"/>
    </edge>
    <edge id=":1_8" function="internal">
        <lane id=":1_8_0" index="0" speed="8.02" length="2.71" shape="4.78,1.24 2.14,0.68"/>
    </edge>
    <edge id=":1_14" function="internal">
        <lane id=":1_14_0" index="0" speed="8.02" length="12.21" shape="2.14,0.68 1.99,0.64 -0.00,-1.50 -1.20,-5.19 -1.60,-10.43"/>
    </edge>
    <edge id=":1_9" function="internal">
        <lane id=":1_9_0" index="0" allow="bus" speed="6.57" length="9.30" shape="-16.80,-4.50 -14.35,-4.87 -12.60,-5.98 -11.55,-7.84 -11.20,-10.43"/>
        <lane id=":1_9_1" index="1" speed="7.38" length="11.97" shape="-16.80,-4.50 -12.95,-4.87 -10.20,-5.98 -8.55,-7.84 -8.00,-10.43"/>
    </edge>
    <edge id=":1_11" function="internal">
        <lane id=":1_11_0" index="0" speed="13.89" length="21.31" shape="-16.80,-1.50 -10.71,-1.94 -6.31,-3.00 -1.92,-4.23 4.14,-5.24"/>
        <lane id=":1_11_1" index="1" speed="13.89" length="21.31" shape="-16.80,-1.50 -10.66,-1.45 -6.15,-1.40 -1.66,-1.55 4.46,-2.05"/>
    </edge>
    <edge id=":2_0" function="internal">
        <lane id=":2_0_0" index="0" speed="6.99" length="10.21" shape="144.53,-3.29 141.67,-2.76 139.64,-1.54 138.41,0.38 138.01,3.00"/>
    </edge>
    <edge id=":2_1" function="internal">
        <lane id=":2_1_0" index="0" speed="13.89" length="18.70" width="3.00" shape="144.28,-6.28 138.78,-5.51 135.11,-4.27 131.44,-3.04 125.93,-2.27"/>
        <lane id=":2_1_1" index="1" speed="13.89" length="18.70" width="3.00" shape="144.28,-6.28 125.77,-5.27"/>
    </edge>
    <edge id=":2_3" function="internal">
        <lane id=":2_3_0" index="0" speed="6.91" length="10.98" shape="138.00,-20.60 138.36,-17.08 139.43,-14.64 141.22,-13.27 143.72,-12.97"/>
    </edge>
    <edge id=":2_4" function="internal">
        <lane id=":2_4_0" index="0" speed="13.89" length="23.60" shape="138.00,-20.60 138.01,3.00"/>
        <lane id=":2_4_1" index="1" speed="13.89" length="23.60" shape="134.80,-20.60 134.81,3.00"/>
        <lane id=":2_4_2" index="2" speed="13.89" length="23.60" shape="131.60,-20.60 131.61,3.01"/>
    </edge>
    <edge id=":2_7" function="internal">
        <lane id=":2_7_0" index="0" speed="9.05" length="17.68" width="3.00" shape="131.60,-20.60 131.24,-14.01 130.14,-9.26 128.32,-6.35 125.77,-5.27"/>
    </edge>
    <edge id=":2_8" function="internal">
        <lane id=":2_8_0" index="0" speed="13.89" length="18.70" shape="125.25,-14.99 130.75,-14.57 134.50,-13.70 138.23,-12.96 143.72,-12.97"/>
        <lane id=":2_8_1" index="1" speed="13.89" length="18.70" shape="125.42,-11.79 130.95,-11.37 134.72,-10.50 138.47,-9.77 143.99,-9.78"/>
    </edge>
    <edge id=":2_10" function="internal">
        <lane id=":2_10_0" index="0" speed="8.08" length="2.73" shape="125.59,-8.59 128.22,-7.87"/>
    </edge>
    <edge id=":2_11" function="internal">
        <lane id=":2_11_0" index="0" speed="8.08" length="11.76" shape="128.22,-7.87 130.10,-5.70 131.23,-2.07 131.61,3.01"/>
    </edge>
    <edge id=":3_0" function="internal">
        <lane id=":3_0_0" index="0" speed="7.17" length="11.65" width="3.00" shape="253.21,-0.39 252.85,-4.24 251.79,-6.94 250.01,-8.50 247.53,-8.92"/>
    </edge>
    <edge id=":3_1" function="internal">
        <lane id=":3_1_0" index="0" speed="13.89" length="27.36" shape="253.21,-0.39 253.71,-8.15 254.80,-15.84 255.90,-22.60 256.40,-27.54"/>
    </edge>
    <edge id=":3_2" function="internal">
        <lane id=":3_2_0" index="0" speed="9.83" length="9.00" shape="256.41,-0.40 257.16,-7.05 258.14,-9.13"/>
    </edge>
    <edge id=":3_14" function="internal">
        <lane id=":3_14_0" index="0" speed="9.83" length="12.98" shape="258.14,-9.13 259.40,-11.80 263.15,-14.64 268.40,-15.59"/>
    </edge>
    <edge id=":3_3" function="internal">
        <lane id=":3_3_0" index="0" speed="7.32" length="11.71" shape="268.39,-6.00 264.55,-5.65 261.80,-4.60 260.16,-2.85 259.61,-0.40"/>
    </edge>
    <edge id=":3_4" function="internal">
        <lane id=":3_4_0" index="0" speed="13.89" length="21.21" width="3.00" shape="268.39,-6.00 262.09,-6.53 257.75,-7.66 253.52,-8.69 247.53,-8.92"/>
        <lane id=":3_4_1" index="1" speed="13.89" length="21.21" width="3.00" shape="268.39,-9.20 262.04,-9.70 257.65,-10.76 253.37,-11.72 247.37,-11.92"/>
    </edge>
    <edge id=":3_6" function="internal">
        <lane id=":3_6_0" index="0" speed="9.83" length="5.48" shape="268.39,-12.40 263.15,-13.35 263.03,-13.44"/>
    </edge>
    <edge id=":3_15" function="internal">
        <lane id=":3_15_0" index="0" speed="9.83" length="16.46" shape="263.03,-13.44 259.40,-16.19 257.15,-20.92 256.40,-27.54"/>
    </edge>
    <edge id=":3_7" function="internal">
        <lane id=":3_7_0" index="0" speed="7.32" length="11.68" shape="262.80,-27.54 263.15,-23.71 264.20,-20.98 265.95,-19.34 268.40,-18.79"/>
    </edge>
    <edge id=":3_8" function="internal">
        <lane id=":3_8_0" index="0" speed="13.89" length="27.35" shape="262.80,-27.54 262.30,-19.78 261.20,-12.09 260.11,-5.34 259.61,-0.40"/>
    </edge>
    <edge id=":3_9" function="internal">
        <lane id=":3_9_0" index="0" speed="10.11" length="8.81" width="3.00" shape="259.60,-27.54 258.84,-20.96 257.90,-18.99"/>
    </edge>
    <edge id=":3_16" function="internal">
        <lane id=":3_16_0" index="0" speed="10.11" length="13.50" width="3.00" shape="257.90,-18.99 256.54,-16.16 252.72,-13.14 247.37,-11.92"/>
    </edge>
    <edge id=":3_10" function="internal">
        <lane id=":3_10_0" index="0" speed="7.58" length="12.44" shape="246.83,-21.79 251.01,-22.22 254.01,-23.32 255.80,-25.09 256.40,-27.54"/>
    </edge>
    <edge id=":3_11" function="internal">
        <lane id=":3_11_0" index="0" speed="13.89" length="21.76" shape="246.83,-21.79 253.38,-21.41 257.95,-20.37 262.34,-19.29 268.40,-18.79"/>
        <lane id=":3_11_1" index="1" speed="13.89" length="21.76" shape="247.00,-18.59 253.49,-18.21 258.00,-17.17 262.35,-16.09 268.40,-15.59"/>
    </edge>
    <edge id=":3_13" function="internal">
        <lane id=":3_13_0" index="0" speed="9.83" length="6.06" shape="247.18,-15.39 252.61,-14.55 253.07,-14.22"/>
    </edge>
    <edge id=":3_17" function="internal">
        <lane id=":3_17_0" index="0" speed="9.83" length="16.17" shape="253.07,-14.22 256.50,-11.76 258.83,-7.05 259.61,-0.40"/>
    </edge>
    <edge id=":M0_0" function="internal">
        <lane id=":M0_0_0" index="0" speed="13.89" length="8.02" shape="66.06,-11.43 68.41,-12.15 69.84,-13.32 71.28,-14.42 73.64,-14.91"/>
        <lane id=":M0_0_1" index="1" speed="13.89" length="8.02" shape="66.38,-8.25 68.64,-8.95 70.00,-10.12 71.38,-11.22 73.65,-11.71"/>
        <lane id=":M0_0_2" index="2" speed="13.89" length="8.02" shape="66.38,-8.25 68.53,-8.44 70.01,-8.51 71.49,-8.51 73.65,-8.51"/>
    </edge>
    <edge id=":M1_0" function="internal">
        <lane id=":M1_0_0" index="0" speed="13.89" length="8.32" shape="195.97,-17.37 198.38,-18.07 199.85,-19.27 201.32,-20.42 203.74,-20.97"/>
        <lane id=":M1_0_1" index="1" speed="13.89" length="8.32" shape="196.24,-14.18 198.59,-14.88 200.01,-16.08 201.44,-17.23 203.80,-17.77"/>
        <lane id=":M1_0_2" index="2" speed="13.89" length="8.32" shape="196.24,-14.18 203.86,-14.57"/>
    </edge>

    <edge id="I0I1" from="0" to="1" priority="-1">
        <lane id="I0I1_0" index="0" speed="13.89" length="83.20" width="3.00" shape="-100.00,-4.50 -16.80,-4.50"/>
        <lane id="I0I1_1" index="1" speed="13.89" length="83.20" width="3.00" shape="-100.00,-1.50 -16.80,-1.50"/>
    </edge>
    <edge id="I10I3" from="10" to="3" priority="-1">
        <lane id="I10I3_0" index="0" speed="13.89" length="72.46" shape="262.80,-100.00 262.80,-27.54"/>
        <lane id="I10I3_1" index="1" speed="13.89" length="72.46" shape="259.60,-100.00 259.60,-27.54"/>
    </edge>
    <edge id="I1I0" from="1" to="0" priority="-1">
        <lane id="I1I0_0" index="0" speed="13.89" length="83.20" shape="-16.80,1.60 -100.00,1.60"/>
    </edge>
    <edge id="I1I8" from="1" to="8" priority="-1">
        <lane id="I1I8_0" index="0" allow="bus" speed="13.89" length="89.57" shape="-11.20,-10.43 -11.20,-100.00"/>
        <lane id="I1I8_1" index="1" speed="13.89" length="89.57" shape="-8.00,-10.43 -8.00,-100.00"/>
        <lane id="I1I8_2" index="2" speed="13.89" length="89.57" shape="-4.80,-10.43 -4.80,-100.00"/>
        <lane id="I1I8_3" index="3" speed="13.89" length="89.57" shape="-1.60,-10.43 -1.60,-100.00"/>
    </edge>
    <edge id="I1M0" from="1" to="M0" priority="-1">
        <lane id="I1M0_0" index="0" speed="13.89" length="62.23" shape="4.14,-5.24 66.06,-11.43"/>
        <lane id="I1M0_1" index="1" speed="13.89" length="62.23" shape="4.46,-2.05 66.38,-8.25"/>
    </edge>
    <edge id="I2I1" from="2" to="1" priority="-1">
        <lane id="I2I1_0" index="0" speed="13.89" length="121.09" width="3.00" shape="125.93,-2.27 5.08,4.23"/>
        <lane id="I2I1_1" index="1" speed="13.89" length="121.09" width="3.00" shape="125.77,-5.27 4.78,1.24"/>
    </edge>
    <edge id="I2I6" from="2" to="6" priority="-1" shape="130.00,-7.00 130.10,100.10">
        <lane id="I2I6_0" index="0" speed="13.89" length="96.99" shape="138.01,3.00 138.10,99.99"/>
        <lane id="I2I6_1" index="1" speed="13.89" length="96.99" shape="134.81,3.00 134.90,100.00"/>
        <lane id="I2I6_2" index="2" speed="13.89" length="96.99" shape="131.61,3.01 131.70,100.00"/>
    </edge>
    <edge id="I2M1" from="2" to="M1" priority="-1" shape="130.00,-7.00 200.10,-12.90">
        <lane id="I2M1_0" index="0" speed="13.89" length="52.44" shape="143.72,-12.97 195.97,-17.37"/>
        <lane id="I2M1_1" index="1" speed="13.89" length="52.44" shape="143.99,-9.78 196.24,-14.18"/>
    </edge>
    <edge id="I3I10" from="3" to="10" priority="-1">
        <lane id="I3I10_0" index="0" speed="13.89" length="72.46" shape="256.40,-27.54 256.40,-100.00"/>
    </edge>
    <edge id="I3I2" from="3" to="2" priority="-1">
        <lane id="I3I2_0" index="0" speed="13.89" length="103.20" width="3.00" customShape="1" shape="247.53,-8.92 144.53,-3.29"/>
        <lane id="I3I2_1" index="1" speed="13.89" length="103.20" width="3.00" shape="247.37,-11.92 144.28,-6.28"/>
    </edge>
    <edge id="I3I4" from="3" to="I4" priority="-1" shape="258.00,-14.00 358.10,-13.90">
        <lane id="I3I4_0" index="0" speed="13.89" length="89.61" shape="268.40,-18.79 358.00,-18.70"/>
        <lane id="I3I4_1" index="1" speed="13.89" length="89.61" shape="268.40,-15.59 358.00,-15.50"/>
    </edge>
    <edge id="I3I7" from="3" to="7" priority="-1" shape="258.00,-14.00 258.10,100.10">
        <lane id="I3I7_0" index="0" speed="13.89" length="100.40" shape="259.61,-0.40 259.70,100.00"/>
    </edge>
    <edge id="I4I3" from="I4" to="3" priority="-1">
        <lane id="I4I3_0" index="0" speed="13.89" length="89.61" shape="358.00,-6.00 268.39,-6.00"/>
        <lane id="I4I3_1" index="1" speed="13.89" length="89.61" shape="358.00,-9.20 268.39,-9.20"/>
        <lane id="I4I3_2" index="2" speed="13.89" length="89.61" shape="358.00,-12.40 268.39,-12.40"/>
    </edge>
    <edge id="I5I1" from="5" to="1" priority="-1">
        <lane id="I5I1_0" index="0" allow="bus" speed="13.89" length="89.99" shape="-10.60,100.00 -10.60,10.01"/>
        <lane id="I5I1_1" index="1" speed="13.89" length="89.99" width="3.00" shape="-7.50,100.00 -7.50,10.01"/>
        <lane id="I5I1_2" index="2" speed="13.89" length="89.99" width="3.00" shape="-4.50,100.00 -4.50,10.01"/>
        <lane id="I5I1_3" index="3" speed="13.89" length="89.99" width="3.00" shape="-1.50,100.00 -1.50,10.01"/>
    </edge>
    <edge id="I7I3" from="7" to="3" priority="-1" shape="258.10,100.10 258.00,-14.00">
        <lane id="I7I3_0" index="0" speed="13.89" length="100.40" shape="253.30,100.00 253.21,-0.39"/>
        <lane id="I7I3_1" index="1" speed="13.89" length="100.40" shape="256.50,100.00 256.41,-0.40"/>
    </edge>
    <edge id="I9I2" from="9" to="2" priority="-1">
        <lane id="I9I2_0" index="0" speed="13.89" length="79.40" shape="138.00,-100.00 138.00,-20.60"/>
        <lane id="I9I2_1" index="1" speed="13.89" length="79.40" shape="134.80,-100.00 134.80,-20.60"/>
        <lane id="I9I2_2" index="2" speed="13.89" length="79.40" shape="131.60,-100.00 131.60,-20.60"/>
    </edge>
    <edge id="M0I2" from="M0" to="2" priority="-1" shape="70.10,-6.90 130.00,-7.00">
        <lane id="M0I2_0" index="0" speed="13.89" length="51.78" shape="73.64,-14.91 125.25,-14.99"/>
        <lane id="M0I2_1" index="1" speed="13.89" length="51.78" shape="73.65,-11.71 125.42,-11.79"/>
        <lane id="M0I2_2" index="2" speed="13.89" length="51.78" shape="73.65,-8.51 125.59,-8.59"/>
    </edge>
    <edge id="M1I3" from="M1" to="3" priority="-1" shape="200.10,-12.90 258.00,-14.00">
        <lane id="M1I3_0" index="0" speed="13.89" length="43.21" shape="203.74,-20.97 246.83,-21.79"/>
        <lane id="M1I3_1" index="1" speed="13.89" length="43.21" shape="203.80,-17.77 247.00,-18.59"/>
        <lane id="M1I3_2" index="2" speed="13.89" length="43.21" shape="203.86,-14.57 247.18,-15.39"/>
    </edge>

    <tlLogic id="I1" type="static" programID="0" offset="0">
        <phase duration="38" state="rrrrrrrGgGGGG"/>
        <phase duration="3"  state="rrrrrrrygyyyy"/>
        <phase duration="6"  state="rrrrrrrGGrrrr"/>
        <phase duration="3"  state="rrrrrrryyrrrr"/>
        <phase duration="37" state="GGgGGGGrrrrrr"/>
        <phase duration="3"  state="yyyyyyyrrrrrr"/>
    </tlLogic>
    <tlLogic id="I2" type="static" programID="0" offset="0">
        <phase duration="36" state="GGGrrrrrGGg"/>
        <phase duration="3"  state="yyyrrrrryyg"/>
        <phase duration="48" state="rrrGGGGGrrr"/>
        <phase duration="3"  state="rrryyyyyrrr"/>
    </tlLogic>
    <tlLogic id="I3" type="static" programID="0" offset="0">
        <phase duration="44" state="rrrGGGgrrrGGGg"/>
        <phase duration="3"  state="rrrrrrGrrrrrrG"/>
        <phase duration="45" state="GGgrrrrGGgrrrr"/>
        <phase duration="3"  state="yygrrrryygrrrr"/>
    </tlLogic>

    <junction id="0" type="dead_end" x="-100.00" y="0.00" incLanes="I1I0_0" intLanes="" shape="-100.00,0.00 -100.00,3.20 -100.00,0.00"/>
    <junction id="1" type="traffic_light" x="0.00" y="0.00" incLanes="I5I1_0 I5I1_1 I5I1_2 I5I1_3 I2I1_0 I2I1_1 I0I1_0 I0I1_1" intLanes=":1_0_0 :1_1_0 :1_13_0 :1_3_0 :1_3_1 :1_3_2 :1_6_0 :1_7_0 :1_14_0 :1_9_0 :1_9_1 :1_11_0 :1_11_1" shape="-12.20,10.01 0.00,10.01 0.58,7.76 1.31,6.94 2.32,6.33 3.63,5.92 5.23,5.73 3.98,-6.83 1.77,-7.05 1.00,-7.53 0.44,-8.25 0.11,-9.22 0.00,-10.43 -12.80,-10.43 -13.24,-7.97 -13.80,-7.11 -14.58,-6.49 -15.58,-6.12 -16.80,-6.00 -16.80,3.20 -14.24,3.96 -13.35,4.90 -12.71,6.23 -12.33,7.93">
        <request index="0"  response="0000000000000" foes="0000010000100" cont="0"/>
        <request index="1"  response="0000100000000" foes="1111110000100" cont="0"/>
        <request index="2"  response="0000000000011" foes="0000010000011" cont="1"/>
        <request index="3"  response="0000100000000" foes="1111110000000" cont="0"/>
        <request index="4"  response="0000100000000" foes="1111110000000" cont="0"/>
        <request index="5"  response="0000100000000" foes="1111110000000" cont="0"/>
        <request index="6"  response="0000100000000" foes="1100110000000" cont="0"/>
        <request index="7"  response="0000001111111" foes="0000001111111" cont="0"/>
        <request index="8"  response="1100001111010" foes="1100001111010" cont="1"/>
        <request index="9"  response="0000000111010" foes="0000000111010" cont="0"/>
        <request index="10" response="0000000111010" foes="0000000111010" cont="0"/>
        <request index="11" response="0000001111010" foes="0000101111010" cont="0"/>
        <request index="12" response="0000001111010" foes="0000101111010" cont="0"/>
    </junction>
    <junction id="10" type="dead_end" x="258.00" y="-100.00" incLanes="I3I10_0" intLanes="" shape="258.00,-100.00 254.80,-100.00 258.00,-100.00"/>
    <junction id="2" type="traffic_light" x="130.00" y="-7.00" incLanes="I3I2_0 I3I2_1 I9I2_0 I9I2_1 I9I2_2 M0I2_0 M0I2_1 M0I2_2" intLanes=":2_0_0 :2_1_0 :2_1_1 :2_3_0 :2_4_0 :2_4_1 :2_4_2 :2_7_0 :2_8_0 :2_8_1 :2_11_0" shape="130.01,3.01 139.61,3.00 140.17,0.46 140.87,-0.46 141.85,-1.14 143.11,-1.58 144.65,-1.79 143.59,-14.57 141.37,-15.09 140.60,-15.91 140.04,-17.10 139.71,-18.66 139.60,-20.60 130.00,-20.60 129.46,-18.38 128.79,-17.60 127.85,-17.04 126.64,-16.71 125.17,-16.59 126.01,-0.78 128.23,-0.45 129.01,0.06 129.56,0.81 129.90,1.79">
        <request index="0"  response="00000000000" foes="00001110000" cont="0"/>
        <request index="1"  response="00000000000" foes="10011110000" cont="0"/>
        <request index="2"  response="00000000000" foes="10011110000" cont="0"/>
        <request index="3"  response="01100000000" foes="01100000000" cont="0"/>
        <request index="4"  response="11100000111" foes="11100000111" cont="0"/>
        <request index="5"  response="11100000111" foes="11100000111" cont="0"/>
        <request index="6"  response="11100000111" foes="11100000111" cont="0"/>
        <request index="7"  response="11100000110" foes="11100000110" cont="0"/>
        <request index="8"  response="00000000000" foes="00011111000" cont="0"/>
        <request index="9"  response="00000000000" foes="00011111000" cont="0"/>
        <request index="10" response="00000000110" foes="00011110110" cont="1"/>
    </junction>
    <junction id="3" type="traffic_light" x="258.00" y="-14.00" incLanes="I7I3_0 I7I3_1 I4I3_0 I4I3_1 I4I3_2 I10I3_0 I10I3_1 M1I3_0 M1I3_1 M1I3_2" intLanes=":3_0_0 :3_1_0 :3_14_0 :3_3_0 :3_4_0 :3_4_1 :3_15_0 :3_7_0 :3_8_0 :3_16_0 :3_10_0 :3_11_0 :3_11_1 :3_17_0" shape="251.61,-0.39 261.21,-0.40 262.01,-2.62 263.00,-3.40 264.40,-3.96 266.19,-4.29 268.38,-4.40 268.40,-20.39 266.18,-21.19 265.40,-22.18 264.84,-23.57 264.51,-25.36 264.40,-27.54 254.80,-27.54 253.90,-25.30 252.78,-24.50 251.22,-23.92 249.20,-23.55 246.74,-23.39 247.61,-7.42 249.83,-6.74 250.61,-5.77 251.16,-4.39 251.50,-2.60">
        <request index="0"  response="00000000110000" foes="00000000110000" cont="0"/>
        <request index="1"  response="11110001110000" foes="11111001110000" cont="0"/>
        <request index="2"  response="11100101110000" foes="11100101110000" cont="1"/>
        <request index="3"  response="00000000000000" foes="10000100000000" cont="0"/>
        <request index="4"  response="00001000000100" foes="10001100000111" cont="0"/>
        <request index="5"  response="00001000000100" foes="10001100000111" cont="0"/>
        <request index="6"  response="01111000000100" foes="01111100000110" cont="1"/>
        <request index="7"  response="01100000000000" foes="01100000000000" cont="0"/>
        <request index="8"  response="11100001111000" foes="11100001111100" cont="0"/>
        <request index="9"  response="11100001110010" foes="11100001110010" cont="1"/>
        <request index="10" response="00000000000000" foes="00000001000010" cont="0"/>
        <request index="11" response="00001000000100" foes="00001111000110" cont="0"/>
        <request index="12" response="00001000000100" foes="00001111000110" cont="0"/>
        <request index="13" response="00001000111100" foes="00001100111110" cont="1"/>
    </junction>
    <junction id="5" type="dead_end" x="0.00" y="100.00" incLanes="" intLanes="" shape="0.00,100.00 -12.20,100.00"/>
    <junction id="6" type="dead_end" x="130.00" y="100.00" incLanes="I2I6_0 I2I6_1 I2I6_2" intLanes="" shape="139.70,99.99 130.10,100.00"/>
    <junction id="7" type="dead_end" x="258.00" y="100.00" incLanes="I3I7_0" intLanes="" shape="258.10,100.00 261.30,100.00 258.10,100.00"/>
    <junction id="8" type="dead_end" x="0.00" y="-100.00" incLanes="I1I8_0 I1I8_1 I1I8_2 I1I8_3" intLanes="" shape="-12.80,-100.00 0.00,-100.00"/>
    <junction id="9" type="dead_end" x="130.00" y="-100.00" incLanes="" intLanes="" shape="130.00,-100.00 139.60,-100.00"/>
    <junction id="I4" type="dead_end" x="358.00" y="-14.00" incLanes="I3I4_0 I3I4_1" intLanes="" shape="358.00,-14.00 358.00,-4.40 358.01,-20.30"/>
    <junction id="M0" type="priority" x="70.00" y="-7.00" incLanes="I1M0_0 I1M0_1" intLanes=":M0_0_0 :M0_0_1 :M0_0_2" shape="73.65,-6.91 73.64,-16.51 70.68,-15.69 69.76,-14.92 68.84,-14.11 67.64,-13.43 65.90,-13.02 66.54,-6.65 69.17,-6.88 70.09,-6.91 71.01,-6.92 72.14,-6.91">
        <request index="0" response="000" foes="000" cont="0"/>
        <request index="1" response="000" foes="000" cont="0"/>
        <request index="2" response="000" foes="000" cont="0"/>
    </junction>
    <junction id="M1" type="priority" x="200.00" y="-13.00" incLanes="I2M1_0 I2M1_1" intLanes=":M1_0_0 :M1_0_1 :M1_0_2" shape="203.89,-12.97 203.71,-22.57 200.70,-21.68 199.77,-20.87 198.83,-20.04 197.62,-19.35 195.84,-18.96 196.37,-12.59">
        <request index="0" response="000" foes="000" cont="0"/>
        <request index="1" response="000" foes="000" cont="0"/>
        <request index="2" response="000" foes="000" cont="0"/>
    </junction>

    <junction id=":1_13_0" type="internal" x="-8.14" y="6.24" incLanes=":1_2_0 I5I1_0" intLanes=":1_0_0 :1_1_0 :1_7_0"/>
    <junction id=":1_14_0" type="internal" x="2.14" y="0.68" incLanes=":1_8_0 I0I1_0 I0I1_1" intLanes=":1_1_0 :1_3_0 :1_3_1 :1_3_2 :1_6_0 :1_9_0 :1_9_1 :1_11_0 :1_11_1"/>
    <junction id=":2_11_0" type="internal" x="128.22" y="-7.87" incLanes=":2_10_0 I3I2_0 I3I2_1" intLanes=":2_0_0 :2_1_0 :2_1_1 :2_4_0 :2_4_1 :2_4_2 :2_7_0"/>
    <junction id=":3_14_0" type="internal" x="258.14" y="-9.13" incLanes=":3_2_0 I10I3_0" intLanes=":3_4_0 :3_4_1 :3_6_0 :3_7_0 :3_8_0 :3_11_0 :3_11_1 :3_13_0"/>
    <junction id=":3_15_0" type="internal" x="263.03" y="-13.44" incLanes=":3_6_0 M1I3_0 M1I3_1" intLanes=":3_1_0 :3_2_0 :3_8_0 :3_9_0 :3_10_0 :3_11_0 :3_11_1"/>
    <junction id=":3_16_0" type="internal" x="257.90" y="-18.99" incLanes=":3_9_0 I7I3_0" intLanes=":3_0_0 :3_1_0 :3_4_0 :3_4_1 :3_6_0 :3_11_0 :3_11_1 :3_13_0"/>
    <junction id=":3_17_0" type="internal" x="253.07" y="-14.22" incLanes=":3_13_0 I4I3_0 I4I3_1" intLanes=":3_1_0 :3_2_0 :3_3_0 :3_4_0 :3_4_1 :3_8_0 :3_9_0"/>

    <connection from="I0I1" to="I1I8" fromLane="0" toLane="0" via=":1_9_0" tl="I1" linkIndex="9" dir="r" state="o"/>
    <connection from="I0I1" to="I1I8" fromLane="0" toLane="1" via=":1_9_1" tl="I1" linkIndex="10" dir="r" state="o"/>
    <connection from="I0I1" to="I1M0" fromLane="1" toLane="0" via=":1_11_0" tl="I1" linkIndex="11" dir="s" state="o"/>
    <connection from="I0I1" to="I1M0" fromLane="1" toLane="1" via=":1_11_1" tl="I1" linkIndex="12" dir="s" state="o"/>
    <connection from="I10I3" to="I3I4" fromLane="0" toLane="0" via=":3_7_0" tl="I3" linkIndex="7" dir="r" state="o"/>
    <connection from="I10I3" to="I3I7" fromLane="0" toLane="0" via=":3_8_0" tl="I3" linkIndex="8" dir="s" state="o"/>
    <connection from="I10I3" to="I3I2" fromLane="1" toLane="1" via=":3_9_0" tl="I3" linkIndex="9" dir="l" state="o"/>
    <connection from="I1M0" to="M0I2" fromLane="0" toLane="0" via=":M0_0_0" dir="s" state="M"/>
    <connection from="I1M0" to="M0I2" fromLane="1" toLane="1" via=":M0_0_1" dir="s" state="M"/>
    <connection from="I1M0" to="M0I2" fromLane="1" toLane="2" via=":M0_0_2" dir="s" state="M"/>
    <connection from="I2I1" to="I1I0" fromLane="0" toLane="0" via=":1_7_0" tl="I1" linkIndex="7" dir="s" state="o"/>
    <connection from="I2I1" to="I1I8" fromLane="1" toLane="3" via=":1_8_0" tl="I1" linkIndex="8" dir="l" state="o"/>
    <connection from="I2M1" to="M1I3" fromLane="0" toLane="0" via=":M1_0_0" dir="s" state="M"/>
    <connection from="I2M1" to="M1I3" fromLane="1" toLane="1" via=":M1_0_1" dir="s" state="M"/>
    <connection from="I2M1" to="M1I3" fromLane="1" toLane="2" via=":M1_0_2" dir="s" state="M"/>
    <connection from="I3I2" to="I2I6" fromLane="0" toLane="0" via=":2_0_0" tl="I2" linkIndex="0" dir="r" state="O"/>
    <connection from="I3I2" to="I2I1" fromLane="1" toLane="0" via=":2_1_0" tl="I2" linkIndex="1" dir="s" state="O"/>
    <connection from="I3I2" to="I2I1" fromLane="1" toLane="1" via=":2_1_1" tl="I2" linkIndex="2" dir="s" state="O"/>
    <connection from="I4I3" to="I3I7" fromLane="0" toLane="0" via=":3_3_0" tl="I3" linkIndex="3" dir="r" state="O"/>
    <connection from="I4I3" to="I3I2" fromLane="0" toLane="0" via=":3_4_0" tl="I3" linkIndex="4" dir="s" state="O"/>
    <connection from="I4I3" to="I3I2" fromLane="1" toLane="1" via=":3_4_1" tl="I3" linkIndex="5" dir="s" state="O"/>
    <connection from="I4I3" to="I3I10" fromLane="2" toLane="0" via=":3_6_0" tl="I3" linkIndex="6" dir="l" state="o"/>
    <connection from="I5I1" to="I1I0" fromLane="0" toLane="0" via=":1_0_0" tl="I1" linkIndex="0" dir="r" state="O"/>
    <connection from="I5I1" to="I1I8" fromLane="0" toLane="0" via=":1_1_0" tl="I1" linkIndex="1" dir="s" state="O"/>
    <connection from="I5I1" to="I1I0" fromLane="1" toLane="0" via=":1_2_0" tl="I1" linkIndex="2" dir="r" state="o"/>
    <connection from="I5I1" to="I1I8" fromLane="1" toLane="1" via=":1_3_0" tl="I1" linkIndex="3" dir="s" state="O"/>
    <connection from="I5I1" to="I1I8" fromLane="2" toLane="2" via=":1_3_1" tl="I1" linkIndex="4" dir="s" state="O"/>
    <connection from="I5I1" to="I1I8" fromLane="3" toLane="3" via=":1_3_2" tl="I1" linkIndex="5" dir="s" state="O"/>
    <connection from="I5I1" to="I1M0" fromLane="3" toLane="1" via=":1_6_0" tl="I1" linkIndex="6" dir="l" state="O"/>
    <connection from="I7I3" to="I3I2" fromLane="0" toLane="0" via=":3_0_0" tl="I3" linkIndex="0" dir="r" state="o"/>
    <connection from="I7I3" to="I3I10" fromLane="0" toLane="0" via=":3_1_0" tl="I3" linkIndex="1" dir="s" state="o"/>
    <connection from="I7I3" to="I3I4" fromLane="1" toLane="1" via=":3_2_0" tl="I3" linkIndex="2" dir="l" state="o"/>
    <connection from="I9I2" to="I2M1" fromLane="0" toLane="0" via=":2_3_0" tl="I2" linkIndex="3" dir="r" state="o"/>
    <connection from="I9I2" to="I2I6" fromLane="0" toLane="0" via=":2_4_0" tl="I2" linkIndex="4" dir="s" state="o"/>
    <connection from="I9I2" to="I2I6" fromLane="1" toLane="1" via=":2_4_1" tl="I2" linkIndex="5" dir="s" state="o"/>
    <connection from="I9I2" to="I2I6" fromLane="2" toLane="2" via=":2_4_2" tl="I2" linkIndex="6" dir="s" state="o"/>
    <connection from="I9I2" to="I2I1" fromLane="2" toLane="1" via=":2_7_0" tl="I2" linkIndex="7" dir="l" state="o"/>
    <connection from="M0I2" to="I2M1" fromLane="0" toLane="0" via=":2_8_0" tl="I2" linkIndex="8" dir="s" state="O"/>
    <connection from="M0I2" to="I2M1" fromLane="1" toLane="1" via=":2_8_1" tl="I2" linkIndex="9" dir="s" state="O"/>
    <connection from="M0I2" to="I2I6" fromLane="2" toLane="2" via=":2_10_0" tl="I2" linkIndex="10" dir="l" state="o"/>
    <connection from="M1I3" to="I3I10" fromLane="0" toLane="0" via=":3_10_0" tl="I3" linkIndex="10" dir="r" state="O"/>
    <connection from="M1I3" to="I3I4" fromLane="0" toLane="0" via=":3_11_0" tl="I3" linkIndex="11" dir="s" state="O"/>
    <connection from="M1I3" to="I3I4" fromLane="1" toLane="1" via=":3_11_1" tl="I3" linkIndex="12" dir="s" state="O"/>
    <connection from="M1I3" to="I3I7" fromLane="2" toLane="0" via=":3_13_0" tl="I3" linkIndex="13" dir="l" state="o"/>
