<?xml version="1.0" encoding="UTF-8"?>

<!-- generated on 2023-03-04 15:02:09 by Eclipse SUMO duarouter Version 1.16.0
<configuration xmlns:xsi="http://www.w3.org/2001/XMLSchema-instance" xsi:noNamespaceSchemaLocation="http://sumo.dlr.de/xsd/duarouterConfiguration.xsd">

    <input>
        <net-file value="ParkSt.net.xml"/>
        <route-files value="ParkSt.trip.xml"/>
    </input>

    <output>
        <output-file value="ParkSt.rou.xml"/>
        <human-readable-time value="true"/>
    </output>

    <processing>
        <randomize-flows value="true"/>
    </processing>

    <defaults>
        <departlane value="random"/>
    </defaults>

    <random_number>
        <seed value="30"/>
    </random_number>

</configuration>
-->

<routes xmlns:xsi="http://www.w3.org/2001/XMLSchema-instance" xsi:noNamespaceSchemaLocation="http://sumo.dlr.de/xsd/routes_file.xsd">
    <vType id="HV_IDM_s" vClass="passenger" tau="1.4" color="0,255,0"/>
    <vType id="HV_IDM_l" vClass="bus"       tau="1.4" color="255,3,3"/>
</routes>
